/UNITS,SI
/PREP7

!节点坐标
N,     1,          -0.300,           0.000,           0.000
N,     2,           0.000,           0.000,           0.000
N,     3,           0.300,           0.000,           0.000
N,     4,           0.075,           0.150,          -0.000
N,     5,          -0.075,           0.150,          -0.000
N,     6,          -0.060,           0.150,          -0.000
N,     7,          -0.045,           0.150,          -0.000
N,     8,          -0.030,           0.150,          -0.000
N,     9,          -0.015,           0.150,          -0.000
N,    10,           0.000,           0.150,          -0.000
N,    11,           0.015,           0.150,          -0.000
N,    12,           0.030,           0.150,          -0.000
N,    13,           0.045,           0.150,          -0.000
N,    14,           0.060,           0.150,          -0.000
N,    15,          -0.098,           0.135,          -0.000
N,    16,          -0.120,           0.120,          -0.000
N,    17,          -0.143,           0.105,          -0.000
N,    18,          -0.165,           0.090,          -0.000
N,    19,          -0.188,           0.075,          -0.000
N,    20,          -0.210,           0.060,          -0.000
! ... 48 like lines cut

!方向点
N,    69,    -2.85000e-01,     3.00000e-02,     0.00000e+00
N,    70,     1.50000e-02,     3.00000e-02,     0.00000e+00
N,    71,    -1.12500e-02,     1.50000e-02,    -3.33067e-18
N,    72,     1.01250e-01,     1.65000e-01,    -3.66374e-17
N,    73,     1.12500e-02,     1.50000e-02,    -3.33067e-18
N,    74,    -1.01250e-01,     1.65000e-01,    -3.66374e-17
N,    75,    -6.75000e-02,     1.65000e-01,    -3.33067e-17
N,    76,    -5.25000e-02,     1.65000e-01,    -3.33067e-17
N,    77,    -3.75000e-02,     1.65000e-01,    -3.33067e-17
N,    78,    -2.25000e-02,     1.65000e-01,    -3.33067e-17
N,    79,    -7.50000e-03,     1.65000e-01,    -3.33067e-17
N,    80,     7.50000e-03,     1.65000e-01,    -3.33067e-17
N,    81,     2.25000e-02,     1.65000e-01,    -3.33067e-17
N,    82,     3.75000e-02,     1.65000e-01,    -3.33067e-17
N,    83,     5.25000e-02,     1.65000e-01,    -3.33067e-17
N,    84,     6.75000e-02,     1.65000e-01,    -3.33067e-17
N,    85,    -1.23750e-01,     1.50000e-01,    -3.33067e-17
N,    86,    -1.46250e-01,     1.35000e-01,    -2.99760e-17
N,    87,    -1.68750e-01,     1.20000e-01,    -2.66454e-17
N,    88,    -1.91250e-01,     1.05000e-01,    -2.33147e-17
! ... 50 like lines cut

!材性
MP, EX,      1,      2.060e+11
MP, NUXY,    1,      3.000e-01
MP, DENS,    1,      7.850e+03
MP, ALPX,    1,      1.200e-05
TBDE,BKIN,    1,,,
TB,BKIN,    1,1,2,1
TBTEMP,0.0
TBDATA,1,      2.350e+08,0

!梁杆索
ET,        1, BEAM44
KEYOPT,    1, 7,      0
KEYOPT,    1, 8,      0

!截面

!梁截面
R,     1, 0
SECTYPE,1,BEAM,RECT,,0
SECOFFSET,CENT
SECDATA,0.002000,0.002000,2,2
R,     2, 0
SECTYPE,2,BEAM,HREC,,0
SECOFFSET,CENT
SECDATA,0.010000,0.010000,0.002000,0.002000,0.002000,0.002000,0,0,0,0

!杆截面

!索截面

!单元

!梁单元

TYPE,      1
MAT,       1
REAL,      1
SECNUM,    1
EN,      1,    1,   60,   69
EN,      2,    2,   51,   70

TYPE,      1
MAT,       1
REAL,      2
SECNUM,    2
EN,      3,    2,   42,   71
EN,      4,    4,   33,   72
EN,      5,    2,   24,   73
EN,      6,    5,   15,   74
EN,      7,    5,    6,   75
EN,      8,    6,    7,   76
EN,      9,    7,    8,   77
EN,     10,    8,    9,   78
EN,     11,    9,   10,   79
EN,     12,   10,   11,   80
EN,     13,   11,   12,   81
EN,     14,   12,   13,   82
EN,     15,   13,   14,   83
EN,     16,   14,    4,   84
EN,     17,   15,   16,   85
EN,     18,   16,   17,   86
EN,     19,   17,   18,   87
EN,     20,   18,   19,   88
EN,     21,   19,   20,   89
EN,     22,   20,   21,   90
! ... 30 like lines cut

TYPE,      1
MAT,       1
REAL,      1
SECNUM,    1
EN,     53,   51,   52,  121
EN,     54,   52,   53,  122
EN,     55,   53,   54,  123
EN,     56,   54,   55,  124
EN,     57,   55,   56,  125
EN,     58,   56,   57,  126
EN,     59,   57,   58,  127
EN,     60,   58,   59,  128
EN,     61,   59,    3,  129
EN,     62,   60,   61,  130
EN,     63,   61,   62,  131
EN,     64,   62,   63,  132
EN,     65,   63,   64,  133
EN,     66,   64,   65,  134
EN,     67,   65,   66,  135
EN,     68,   66,   67,  136
EN,     69,   67,   68,  137
EN,     70,   68,    2,  138

!杆单元

!索单元

!连接单元

!板单元

!层号
esel,s,,,1
esel,a,,,2
esel,a,,,3
esel,a,,,4
esel,a,,,5
esel,a,,,6
esel,a,,,7
esel,a,,,8
esel,a,,,9
esel,a,,,10
esel,a,,,11
esel,a,,,12
esel,a,,,13
esel,a,,,14
esel,a,,,15
esel,a,,,16
esel,a,,,17
esel,a,,,18
esel,a,,,19
esel,a,,,20
esel,a,,,21
! ... 49 like lines cut
cm,Group1,elem

allsel

!节点约束
/SOLU
D,    1, UX,   0
D,    1, UY,   0
D,    1, UZ,   0
D,    3, UX,   0
D,    3, UY,   0
D,    3, UZ,   0

!节点荷载
/SOLU
FCUM,ADD

!工况0
*Create,Force_C0
Acel,0,0,9.8
*End

!工况0
*Use,Force_C0,1.0
